{
   "completed_at" : "20250112T174746Z",
   "completed_status" : "Success",
   "created_at" : "20250112T174742Z",
   "current_step" : 0,
   "eplusout_err" : "Program Version,EnergyPlus, Version 23.2.0-7636e6b3e9, YMD=2025.01.12 17:47,\n   ************* Beginning Zone Sizing Calculations\n   ** Warning ** ProcessScheduleInput: Schedule:Day:Interval=\"SCHEDULE DAY 1\", Blank Schedule Type Limits Name input -- will not be validated.\n   ** Warning ** ProcessScheduleInput: Schedule:Day:Interval=\"SCHEDULE DAY 2\", Blank Schedule Type Limits Name input -- will not be validated.\n   ** Warning ** ProcessScheduleInput: Schedule:Constant=\"ALWAYS OFF DISCRETE\", Blank Schedule Type Limits Name input -- will not be validated.\n   ** Warning ** ProcessScheduleInput: Schedule:Constant=\"ALWAYS ON CONTINUOUS\", Blank Schedule Type Limits Name input -- will not be validated.\n   ** Warning ** CalculateZoneVolume: 1 zone is not fully enclosed. For more details use:  Output:Diagnostics,DisplayExtrawarnings; \n   ** Warning ** CheckUsedConstructions: There are 30 nominally unused constructions in input.\n   **   ~~~   ** For explicit details on each unused construction, use Output:Diagnostics,DisplayExtraWarnings;\n   ** Warning ** GetInternalHeatGains: People=\"SPACE FUNCTION RETAIL - SALES PEOPLE\" has comfort related schedules but no thermal comfort model selected.\n   **   ~~~   ** If schedules are specified for air velocity, clothing insulation, and/or work efficiency but no thermal comfort\n   **   ~~~   ** thermal comfort model is selected, the schedules will be listed as unused schedules in the .err file.\n   **   ~~~   ** To avoid these errors, select a valid thermal comfort model or eliminate these schedules in the PEOPLE input.\n   ** Warning ** GetInternalHeatGains: People=\"SPACE FUNCTION RETAIL - SALES PEOPLE\" has comfort related schedules but no thermal comfort model selected.\n   **   ~~~   ** If schedules are specified for air velocity, clothing insulation, and/or work efficiency but no thermal comfort\n   **   ~~~   ** thermal comfort model is selected, the schedules will be listed as unused schedules in the .err file.\n   **   ~~~   ** To avoid these errors, select a valid thermal comfort model or eliminate these schedules in the PEOPLE input.\n   ** Warning ** GetInternalHeatGains: People=\"SPACE FUNCTION RETAIL - SALES PEOPLE\" has comfort related schedules but no thermal comfort model selected.\n   **   ~~~   ** If schedules are specified for air velocity, clothing insulation, and/or work efficiency but no thermal comfort\n   **   ~~~   ** thermal comfort model is selected, the schedules will be listed as unused schedules in the .err file.\n   **   ~~~   ** To avoid these errors, select a valid thermal comfort model or eliminate these schedules in the PEOPLE input.\n   ** Warning ** GetInternalHeatGains: People=\"SPACE FUNCTION RETAIL - SALES PEOPLE\" has comfort related schedules but no thermal comfort model selected.\n   **   ~~~   ** If schedules are specified for air velocity, clothing insulation, and/or work efficiency but no thermal comfort\n   **   ~~~   ** thermal comfort model is selected, the schedules will be listed as unused schedules in the .err file.\n   **   ~~~   ** To avoid these errors, select a valid thermal comfort model or eliminate these schedules in the PEOPLE input.\n   ** Warning ** GetInternalHeatGains: People=\"SPACE FUNCTION RETAIL - SALES PEOPLE\" has comfort related schedules but no thermal comfort model selected.\n   **   ~~~   ** If schedules are specified for air velocity, clothing insulation, and/or work efficiency but no thermal comfort\n   **   ~~~   ** thermal comfort model is selected, the schedules will be listed as unused schedules in the .err file.\n   **   ~~~   ** To avoid these errors, select a valid thermal comfort model or eliminate these schedules in the PEOPLE input.\n   ** Warning ** GetInternalHeatGains: People=\"SPACE FUNCTION RETAIL - SALES PEOPLE\" has comfort related schedules but no thermal comfort model selected.\n   **   ~~~   ** If schedules are specified for air velocity, clothing insulation, and/or work efficiency but no thermal comfort\n   **   ~~~   ** thermal comfort model is selected, the schedules will be listed as unused schedules in the .err file.\n   **   ~~~   ** To avoid these errors, select a valid thermal comfort model or eliminate these schedules in the PEOPLE input.\n   ** Warning ** GetInternalHeatGains: People=\"SPACE FUNCTION RETAIL - SALES PEOPLE\" has comfort related schedules but no thermal comfort model selected.\n   **   ~~~   ** If schedules are specified for air velocity, clothing insulation, and/or work efficiency but no thermal comfort\n   **   ~~~   ** thermal comfort model is selected, the schedules will be listed as unused schedules in the .err file.\n   **   ~~~   ** To avoid these errors, select a valid thermal comfort model or eliminate these schedules in the PEOPLE input.\n   ** Warning ** GetInternalHeatGains: People=\"SPACE FUNCTION RETAIL - SALES PEOPLE\" has comfort related schedules but no thermal comfort model selected.\n   **   ~~~   ** If schedules are specified for air velocity, clothing insulation, and/or work efficiency but no thermal comfort\n   **   ~~~   ** thermal comfort model is selected, the schedules will be listed as unused schedules in the .err file.\n   **   ~~~   ** To avoid these errors, select a valid thermal comfort model or eliminate these schedules in the PEOPLE input.\n   ** Warning ** GetInternalHeatGains: People=\"SPACE FUNCTION RETAIL - SALES PEOPLE\" has comfort related schedules but no thermal comfort model selected.\n   **   ~~~   ** If schedules are specified for air velocity, clothing insulation, and/or work efficiency but no thermal comfort\n   **   ~~~   ** thermal comfort model is selected, the schedules will be listed as unused schedules in the .err file.\n   **   ~~~   ** To avoid these errors, select a valid thermal comfort model or eliminate these schedules in the PEOPLE input.\n   ** Warning ** GetInternalHeatGains: People=\"SPACE FUNCTION RETAIL - SALES PEOPLE\" has comfort related schedules but no thermal comfort model selected.\n   **   ~~~   ** If schedules are specified for air velocity, clothing insulation, and/or work efficiency but no thermal comfort\n   **   ~~~   ** thermal comfort model is selected, the schedules will be listed as unused schedules in the .err file.\n   **   ~~~   ** To avoid these errors, select a valid thermal comfort model or eliminate these schedules in the PEOPLE input.\n   ************* Beginning System Sizing Calculations\n   ************* Beginning Plant Sizing Calculations\n   ** Warning ** GetOAControllerInputs: Controller:MechanicalVentilation=\"CONTROLLER MECHANICAL VENTILATION 1\"\n   **   ~~~   ** Cannot locate a matching DesignSpecification:ZoneAirDistribution object for Zone=\"ALL_ST=RETAIL - SALES_FL=BUILDING STORY 1_SCH=C\".\n   **   ~~~   ** Using default zone air distribution effectiveness of 1.0 for heating and cooling.\n   ** Warning ** GetOAControllerInputs: Controller:MechanicalVentilation=\"CONTROLLER MECHANICAL VENTILATION 2\"\n   **   ~~~   ** Cannot locate a matching DesignSpecification:ZoneAirDistribution object for Zone=\"ALL_ST=RETAIL - SALES_FL=BUILDING STORY 1_SCH=C 1\".\n   **   ~~~   ** Using default zone air distribution effectiveness of 1.0 for heating and cooling.\n   ** Warning ** GetOAControllerInputs: Controller:MechanicalVentilation=\"CONTROLLER MECHANICAL VENTILATION 3\"\n   **   ~~~   ** Cannot locate a matching DesignSpecification:ZoneAirDistribution object for Zone=\"ALL_ST=RETAIL - SALES_FL=BUILDING STORY 1_SCH=C 2\".\n   **   ~~~   ** Using default zone air distribution effectiveness of 1.0 for heating and cooling.\n   ** Warning ** GetOAControllerInputs: Controller:MechanicalVentilation=\"CONTROLLER MECHANICAL VENTILATION 4\"\n   **   ~~~   ** Cannot locate a matching DesignSpecification:ZoneAirDistribution object for Zone=\"ALL_ST=RETAIL - SALES_FL=BUILDING STORY 1_SCH=C 3\".\n   **   ~~~   ** Using default zone air distribution effectiveness of 1.0 for heating and cooling.\n   ** Warning ** Output:Meter: invalid Key Name=\"NATURALGAS:FACILITY\" - not found.\n   ** Warning ** Output:Meter: invalid Key Name=\"DISTRICTCOOLING:FACILITY\" - not found.\n   ** Warning ** Output:Meter: invalid Key Name=\"DISTRICTHEATING:FACILITY\" - not found.\n   ** Warning ** Output:Meter:MeterFileOnly: invalid Key Name=\"NATURALGAS:FACILITY\" - not found.\n   ** Warning ** Output:Meter:MeterFileOnly requested for \"Electricity:Facility\" (TimeStep), already on \"Output:Meter\". Will report to both eplusout.eso and eplusout.mtr\n   ************* Testing Individual Branch Integrity\n   ************* All Branches passed integrity testing\n   ************* Testing Individual Supply Air Path Integrity\n   ************* All Supply Air Paths passed integrity testing\n   ************* Testing Individual Return Air Path Integrity\n   ************* All Return Air Paths passed integrity testing\n   ************* No node connection errors were found.\n   ** Warning ** CalcEquipmentFlowRates: \"LGSTORE1 SERVICE WATER USE 0.04GPM 140F\" - Target water temperature is greater than the hot water temperature by (1.47 C)\n   **   ~~~   **  Environment=CALGARY INTL AP ANN CLG .4% CONDNS DB=>MWB HVAC Sizing Pass 1, at Simulation time=07/21 00:00 - 00:10\n   **   ~~~   ** ...target water temperature     = 60.00 C\n   **   ~~~   ** ...hot water temperature        = 58.53 C\n   **   ~~~   ** ...Target water temperature should be less than or equal to the hot water temperature. Verify temperature setpoints and schedules.\n   ** Warning ** CalcEquipmentFlowRates: \"LGSTORE2 SERVICE WATER USE 0.04GPM 140F\" - Target water temperature is greater than the hot water temperature by (1.47 C)\n   **   ~~~   **  Environment=CALGARY INTL AP ANN CLG .4% CONDNS DB=>MWB HVAC Sizing Pass 1, at Simulation time=07/21 00:00 - 00:10\n   **   ~~~   ** ...target water temperature     = 60.00 C\n   **   ~~~   ** ...hot water temperature        = 58.53 C\n   **   ~~~   ** ...Target water temperature should be less than or equal to the hot water temperature. Verify temperature setpoints and schedules.\n   ** Warning ** CalcEquipmentFlowRates: \"SMSTORE1 SERVICE WATER USE 0.02GPM 140F\" - Target water temperature is greater than the hot water temperature by (1.47 C)\n   **   ~~~   **  Environment=CALGARY INTL AP ANN CLG .4% CONDNS DB=>MWB HVAC Sizing Pass 1, at Simulation time=07/21 00:00 - 00:10\n   **   ~~~   ** ...target water temperature     = 60.00 C\n   **   ~~~   ** ...hot water temperature        = 58.53 C\n   **   ~~~   ** ...Target water temperature should be less than or equal to the hot water temperature. Verify temperature setpoints and schedules.\n   ** Warning ** CalcEquipmentFlowRates: \"SMSTORE2 SERVICE WATER USE 0.02GPM 140F\" - Target water temperature is greater than the hot water temperature by (1.47 C)\n   **   ~~~   **  Environment=CALGARY INTL AP ANN CLG .4% CONDNS DB=>MWB HVAC Sizing Pass 1, at Simulation time=07/21 00:00 - 00:10\n   **   ~~~   ** ...target water temperature     = 60.00 C\n   **   ~~~   ** ...hot water temperature        = 58.53 C\n   **   ~~~   ** ...Target water temperature should be less than or equal to the hot water temperature. Verify temperature setpoints and schedules.\n   ** Warning ** CalcEquipmentFlowRates: \"SMSTORE3 SERVICE WATER USE 0.02GPM 140F\" - Target water temperature is greater than the hot water temperature by (1.47 C)\n   **   ~~~   **  Environment=CALGARY INTL AP ANN CLG .4% CONDNS DB=>MWB HVAC Sizing Pass 1, at Simulation time=07/21 00:00 - 00:10\n   **   ~~~   ** ...target water temperature     = 60.00 C\n   **   ~~~   ** ...hot water temperature        = 58.53 C\n   **   ~~~   ** ...Target water temperature should be less than or equal to the hot water temperature. Verify temperature setpoints and schedules.\n   ** Warning ** CalcEquipmentFlowRates: \"SMSTORE4 SERVICE WATER USE 0.02GPM 140F\" - Target water temperature is greater than the hot water temperature by (1.47 C)\n   **   ~~~   **  Environment=CALGARY INTL AP ANN CLG .4% CONDNS DB=>MWB HVAC Sizing Pass 1, at Simulation time=07/21 00:00 - 00:10\n   **   ~~~   ** ...target water temperature     = 60.00 C\n   **   ~~~   ** ...hot water temperature        = 58.53 C\n   **   ~~~   ** ...Target water temperature should be less than or equal to the hot water temperature. Verify temperature setpoints and schedules.\n   ** Warning ** CalcEquipmentFlowRates: \"SMSTORE5 SERVICE WATER USE 0.02GPM 140F\" - Target water temperature is greater than the hot water temperature by (1.47 C)\n   **   ~~~   **  Environment=CALGARY INTL AP ANN CLG .4% CONDNS DB=>MWB HVAC Sizing Pass 1, at Simulation time=07/21 00:00 - 00:10\n   **   ~~~   ** ...target water temperature     = 60.00 C\n   **   ~~~   ** ...hot water temperature        = 58.53 C\n   **   ~~~   ** ...Target water temperature should be less than or equal to the hot water temperature. Verify temperature setpoints and schedules.\n   ** Warning ** CalcEquipmentFlowRates: \"SMSTORE6 SERVICE WATER USE 0.02GPM 140F\" - Target water temperature is greater than the hot water temperature by (1.47 C)\n   **   ~~~   **  Environment=CALGARY INTL AP ANN CLG .4% CONDNS DB=>MWB HVAC Sizing Pass 1, at Simulation time=07/21 00:00 - 00:10\n   **   ~~~   ** ...target water temperature     = 60.00 C\n   **   ~~~   ** ...hot water temperature        = 58.53 C\n   **   ~~~   ** ...Target water temperature should be less than or equal to the hot water temperature. Verify temperature setpoints and schedules.\n   ** Warning ** CalcEquipmentFlowRates: \"SMSTORE7 SERVICE WATER USE 0.02GPM 140F\" - Target water temperature is greater than the hot water temperature by (1.47 C)\n   **   ~~~   **  Environment=CALGARY INTL AP ANN CLG .4% CONDNS DB=>MWB HVAC Sizing Pass 1, at Simulation time=07/21 00:00 - 00:10\n   **   ~~~   ** ...target water temperature     = 60.00 C\n   **   ~~~   ** ...hot water temperature        = 58.53 C\n   **   ~~~   ** ...Target water temperature should be less than or equal to the hot water temperature. Verify temperature setpoints and schedules.\n   ** Warning ** CalcEquipmentFlowRates: \"SMSTORE8 SERVICE WATER USE 0.02GPM 140F\" - Target water temperature is greater than the hot water temperature by (1.47 C)\n   **   ~~~   **  Environment=CALGARY INTL AP ANN CLG .4% CONDNS DB=>MWB HVAC Sizing Pass 1, at Simulation time=07/21 00:00 - 00:10\n   **   ~~~   ** ...target water temperature     = 60.00 C\n   **   ~~~   ** ...hot water temperature        = 58.53 C\n   **   ~~~   ** ...Target water temperature should be less than or equal to the hot water temperature. Verify temperature setpoints and schedules.\n   ** Warning ** Output:Table:Monthly requested with SimulationControl Run Simulation for Weather File Run Periods set to No so Output:Table:Monthly will not be generated\n   ************* Beginning Simulation\n   ************* Simulation Error Summary *************\n   ************* There are 8 unused objects in input.\n   ************* Use Output:Diagnostics,DisplayUnusedObjects; to see them.\n   ************* There are 8 unused schedules in input.\n   ************* There are 8 unused week schedules in input.\n   ************* There are 11 unused day schedules in input.\n   ************* Use Output:Diagnostics,DisplayUnusedSchedules; to see them.\n   *************\n   ************* ===== Recurring Error Summary =====\n   ************* The following recurring error messages occurred.\n   *************\n   *************  ** Warning ** \"LGSTORE1 SERVICE WATER USE 0.04GPM 140F\" - Target water temperature should be less than or equal to the hot water temperature error continues...\n   *************  **   ~~~   **   This error occurred 8175 total times;\n   *************  **   ~~~   **   during Warmup 0 times;\n   *************  **   ~~~   **   during Sizing 0 times.\n   *************  **   ~~~   **   Max=2.258218  Min=0.085909\n   *************\n   *************  ** Warning ** \"LGSTORE2 SERVICE WATER USE 0.04GPM 140F\" - Target water temperature should be less than or equal to the hot water temperature error continues...\n   *************  **   ~~~   **   This error occurred 8175 total times;\n   *************  **   ~~~   **   during Warmup 0 times;\n   *************  **   ~~~   **   during Sizing 0 times.\n   *************  **   ~~~   **   Max=2.258218  Min=0.085909\n   *************\n   *************  ** Warning ** \"SMSTORE1 SERVICE WATER USE 0.02GPM 140F\" - Target water temperature should be less than or equal to the hot water temperature error continues...\n   *************  **   ~~~   **   This error occurred 8175 total times;\n   *************  **   ~~~   **   during Warmup 0 times;\n   *************  **   ~~~   **   during Sizing 0 times.\n   *************  **   ~~~   **   Max=2.258218  Min=0.085909\n   *************\n   *************  ** Warning ** \"SMSTORE2 SERVICE WATER USE 0.02GPM 140F\" - Target water temperature should be less than or equal to the hot water temperature error continues...\n   *************  **   ~~~   **   This error occurred 8175 total times;\n   *************  **   ~~~   **   during Warmup 0 times;\n   *************  **   ~~~   **   during Sizing 0 times.\n   *************  **   ~~~   **   Max=2.258218  Min=0.085909\n   *************\n   *************  ** Warning ** \"SMSTORE3 SERVICE WATER USE 0.02GPM 140F\" - Target water temperature should be less than or equal to the hot water temperature error continues...\n   *************  **   ~~~   **   This error occurred 8175 total times;\n   *************  **   ~~~   **   during Warmup 0 times;\n   *************  **   ~~~   **   during Sizing 0 times.\n   *************  **   ~~~   **   Max=2.258218  Min=0.085909\n   *************\n   *************  ** Warning ** \"SMSTORE4 SERVICE WATER USE 0.02GPM 140F\" - Target water temperature should be less than or equal to the hot water temperature error continues...\n   *************  **   ~~~   **   This error occurred 8175 total times;\n   *************  **   ~~~   **   during Warmup 0 times;\n   *************  **   ~~~   **   during Sizing 0 times.\n   *************  **   ~~~   **   Max=2.258218  Min=0.085909\n   *************\n   *************  ** Warning ** \"SMSTORE5 SERVICE WATER USE 0.02GPM 140F\" - Target water temperature should be less than or equal to the hot water temperature error continues...\n   *************  **   ~~~   **   This error occurred 8175 total times;\n   *************  **   ~~~   **   during Warmup 0 times;\n   *************  **   ~~~   **   during Sizing 0 times.\n   *************  **   ~~~   **   Max=2.258218  Min=0.085909\n   *************\n   *************  ** Warning ** \"SMSTORE6 SERVICE WATER USE 0.02GPM 140F\" - Target water temperature should be less than or equal to the hot water temperature error continues...\n   *************  **   ~~~   **   This error occurred 8175 total times;\n   *************  **   ~~~   **   during Warmup 0 times;\n   *************  **   ~~~   **   during Sizing 0 times.\n   *************  **   ~~~   **   Max=2.258218  Min=0.085909\n   *************\n   *************  ** Warning ** \"SMSTORE7 SERVICE WATER USE 0.02GPM 140F\" - Target water temperature should be less than or equal to the hot water temperature error continues...\n   *************  **   ~~~   **   This error occurred 8175 total times;\n   *************  **   ~~~   **   during Warmup 0 times;\n   *************  **   ~~~   **   during Sizing 0 times.\n   *************  **   ~~~   **   Max=2.258218  Min=0.085909\n   *************\n   *************  ** Warning ** \"SMSTORE8 SERVICE WATER USE 0.02GPM 140F\" - Target water temperature should be less than or equal to the hot water temperature error continues...\n   *************  **   ~~~   **   This error occurred 8175 total times;\n   *************  **   ~~~   **   during Warmup 0 times;\n   *************  **   ~~~   **   during Sizing 0 times.\n   *************  **   ~~~   **   Max=2.258218  Min=0.085909\n   *************\n   *************\n   ************* ===== Final Error Summary =====\n   ************* The following error categories occurred.  Consider correcting or noting.\n   ************* Nominally Unused Constructions\n   ************* ..The nominally unused constructions warning is provided to alert you to potential conditions that can cause\n   ************* ..extra time during simulation. Each construction is calculated by the algorithm indicated in the HeatBalanceAlgorithm\n   ************* ..object. You may remove the constructions indicated (when you use the DisplayExtraWarnings option).\n   *************\n   ************* EnergyPlus Warmup Error Summary. During Warmup: 0 Warning; 0 Severe Errors.\n   ************* EnergyPlus Sizing Error Summary. During Sizing: 16 Warning; 0 Severe Errors.\n   ************* EnergyPlus Completed Successfully-- 81786 Warning; 0 Severe Errors; Elapsed Time=00hr 00min  3.89sec\n",
   "file_paths" : 
   [
      "/btap_costing/lib/openstudio-standards/standards/necb/common/temp_folder/sizing_folder/plant_loops/generated_files",
      "./files",
      "./weather",
      "../../files",
      "../../weather",
      "./"
   ],
   "hash" : "6DBDC5FE",
   "run_options" : null,
   "seed_file" : "in.osm",
   "started_at" : "20250112T174742Z",
   "steps" : [],
   "updated_at" : "20250112T174746Z",
   "weather_file" : "in.epw"
}